Header
  CHECK KEYWORDS Warn
  Mesh DB "." "."
  Include Path ""
  Results Directory ""
End

Simulation
  Max Output Level = 5
  Coordinate System = Cartesian
  Coordinate Mapping(3) = 1 2 3
  Simulation Type = Steady state
  Steady State Max Iterations = 1
  Output Intervals = 1
  Timestepping Method = BDF
  BDF Order = 1
  Solver Input File = case.sif
  Post File = case.vtu
End

Constants
  Gravity(4) = 0 -1 0 9.82
  Stefan Boltzmann = 5.67e-08
  Permittivity of Vacuum = 8.8542e-12
  Boltzmann Constant = 1.3807e-23
  Unit Charge = 1.602e-19
End

Body 1
  Target Bodies(1) = 1
  Name = "Body 1"
  Equation = 1
  Material = 2
End

Body 2
  Target Bodies(1) = 2
  Name = "Body 2"
  Equation = 1
  Material = 1
End

Body 3
  Target Bodies(1) = 3
  Name = "Body 3"
  Equation = 1
  Material = 3
End

Body 4
  Target Bodies(1) = 4
  Name = "Body 4"
  Equation = 1
  Material = 4
End

Body 5
  Target Bodies(1) = 5
  Name = "Body 5"
  Equation = 1
  Material = 5
End

Body 6
  Target Bodies(1) = 6
  Name = "Body 6"
  Equation = 1
  Material = 2
End

Solver 1
  Equation = MgDyn
  Procedure = "MagnetoDynamics" "WhitneyAVSolver"
  Exec Solver = Always
  Stabilize = True
  Bubbles = False
  Lumped Mass Matrix = False
  Optimize Bandwidth = True
  Steady State Convergence Tolerance = 1.0e-5
  Nonlinear System Convergence Tolerance = 1.0e-7
  Nonlinear System Max Iterations = 20
  Nonlinear System Newton After Iterations = 3
  Nonlinear System Newton After Tolerance = 1.0e-3
  Nonlinear System Relaxation Factor = 1
  Linear System Solver = Iterative
  Linear System Iterative Method = BiCGStab
  Linear System Max Iterations = 500
  Linear System Convergence Tolerance = 1.0e-10
  BiCGstabl polynomial degree = 2
  Linear System Preconditioning = ILU0
  Linear System ILUT Tolerance = 1.0e-3
  Linear System Abort Not Converged = False
  Linear System Residual Output = 10
  Linear System Precondition Recompute = 1
End

Solver 2
  Equation = MgDynPost
  Calculate Nodal Forces = True
  Procedure = "MagnetoDynamics" "MagnetoDynamicsCalcFields"
  Calculate Magnetic Field Strength = True
  Exec Solver = Always
  Stabilize = True
  Bubbles = False
  Lumped Mass Matrix = False
  Optimize Bandwidth = True
  Steady State Convergence Tolerance = 1.0e-5
  Nonlinear System Convergence Tolerance = 1.0e-7
  Nonlinear System Max Iterations = 20
  Nonlinear System Newton After Iterations = 3
  Nonlinear System Newton After Tolerance = 1.0e-3
  Nonlinear System Relaxation Factor = 1
  Linear System Solver = Iterative
  Linear System Iterative Method = CG
  Linear System Max Iterations = 500
  Linear System Convergence Tolerance = 1.0e-10
  BiCGstabl polynomial degree = 2
  Linear System Preconditioning = ILU0
  Linear System ILUT Tolerance = 1.0e-3
  Linear System Abort Not Converged = False
  Linear System Residual Output = 10
  Linear System Precondition Recompute = 1
End

Equation 1
  Name = "MgDyn"
  Active Solvers(2) = 1 2
End

Material 1
  Name = "Air"
  Relative Permittivity = Real 1
  Relative Permeability = Real 1
End

Material 2
  Name = "FixedMag"
  Magnetization 1 = 0
  Magnetization 3 = Real -1.03e6
  Magnetization 2 = 0
  Relative Permeability = 1.0997785406
  Relative Permittivity = 1
End

Material 3
  Name = "FreeMag"
  Magnetization 2 = 0
  Magnetization 1 = 0
  Relative Permeability = 1.0997785406
  Magnetization 3 = Real 1.03e6
  Relative Permittivity = 1
End

Material 4
  Name = "Copper (generic)"
  Mesh Poisson ratio = 0.34
  Density = 8960.0
  Electric Conductivity = 59.59e6
  Relative Permittivity = 1
  Poisson ratio = 0.34
  Heat Capacity = 385.0
  Electric Conductivity = 59.59e6
  Youngs modulus = 115.0e9
  Relative Permeability = 0.999994
  Heat expansion Coefficient = 16.5e-6
  Sound speed = 3810.0
  Relative Permeability = 0.999994
  Heat Conductivity = 401.0
End

Material 5
  Name = "Polyvinyl chloride (generic)"
  Heat Conductivity = 0.16
  Density = 1380.0
  Youngs modulus = 3100.0e6
  Heat expansion Coefficient = 80.0e-6
  Heat Capacity = 900.0
  Poisson ratio = 0.41
  Relative Permeability = Real 4
  Mesh Poisson ratio = 0.41
End

Body Force 1
  Name = "BodyForce 2"
End

Boundary Condition 1
  Target Boundaries(3) = 5 16 17 
  Name = "ExternalBC"
  AV {e} = Real 0
End
